[TITLE]


[JUNCTIONS]
;ID              	Elev        	Demand      	Pattern         
 conexion1       	0           	05          	4               	;2
 1               	0           	10          	                	;
 4               	0           	0           	                	;
 5               	0           	0           	                	;
 6               	0           	2           	1               	;

[RESERVOIRS]
;ID              	Head        	Pattern         
 2               	022         	             	;12

[TANKS]
;ID              	Elevation   	InitLevel   	MinLevel    	MaxLevel    	Diameter    	MinVol      	VolCurve
 3               	0           	10          	0           	20          	50          	5           	3               	;

[PIPES]
;ID              	Node1           	Node2           	Length      	Diameter    	Roughness   	MinorLoss   	Status
 1               	conexion1       	3               	1000        	300         	0.1         	0534        	Closed	;lala

[PUMPS]
;ID              	Node1           	Node2           	Parameters
 pump2           	conexion1       	2               	HEAD pumpcurve	SPEED 40011	PATTERN 1	;bomba

[VALVES]
;ID              	Node1           	Node2           	Diameter    	Type	Setting     	MinorLoss   
 valve3          	3               	2               	300         	PSV 	ipopio      	6001        	;
 2               	4               	5               	12          	PRV 	0           	0           	;

[TAGS]
 NODE 	conexion1       	3
 NODE 	2               	2
 NODE 	3               	12
 LINK 	1               	111
 LINK 	pump2           	bombalabel

[DEMANDS]
;Junction        	Demand      	Pattern         	Category
 conexion1       	05          	4               	;cat 
 conexion1       	06          	5               	;cat 
 conexion1       	07          	6               	;cat 
 1               	10          	                	;       
 1               	6           	                	;       

[STATUS]
;ID              	Status/Setting
 pump2           	40011
 valve3          	Open

[PATTERNS]
;ID              	Multipliers
;describ
 1               	1           	2           	3           	4           	1           	5           
 1               	6           	7           	1           
;
 4               	1           	2           	3           	4           
;
 5               	5           	6           	7           
;
 6               	1           	3           	4           	5           
;
 7               	1           	3           	5           

[CURVES]
;ID              	X-Value     	Y-Value
;PUMP: PUMP: PUMP: PUMP: PUMP: PUMP: PUMP: PUMP: PUMP: PUMP: PUMP: jajajjaja
 pumpcurve               	1           	1

[CONTROLS]


dasdasdasdasdasda



















[RULES]


piopiopio
pio



















[ENERGY]
 Global Efficiency  	75
 Global Price       	0123
 Global Pattern     	dasasd
 Demand Charge      	10.5
 Pump 	pump2           	Efficiency	eficcurve
 Pump 	pump2           	Price     	100
 Pump 	pump2           	Pattern   	pricepattern

[EMITTERS]
;Junction        	Coefficient
 conexion1       	5555

[QUALITY]
;Node            	InitQual
 conexion1       	10
 2               	3
 3               	888

[SOURCES]
;Node            	Type        	Quality     	Pattern
 conexion1       	CONCEN      	7
 2               	MASS        	3           	4
 3               	SETPOINT    	999

[REACTIONS]
;Type     	Pipe/Tank       	Coefficient
 Bulk     	1               	3000
 Wall     	1               	4000
 Tank     	3               	7765.65


[REACTIONS]
 Order Bulk            	8
 Order Tank            	0
 Order Wall            	1
 Global Bulk           	9
 Global Wall           	10
 Limiting Potential    	11
 Roughness Correlation 	12

[MIXING]
;Tank            	Model
 3               	2Comp       	

[TIMES]
 Duration           	240:00 
 Hydraulic Timestep 	1:00 
 Quality Timestep   	0:03 
 Pattern Timestep   	1:00 
 Pattern Start      	0:00 
 Report Timestep    	1:00 
 Report Start       	120:00 
 Start ClockTime    	6:00 AM
 Statistic          	NONE

[REPORT]
 Status             	Yes
 Summary            	No
 Page               	0

[OPTIONS]
 Units              	LPS
 Headloss           	D-W
 Specific Gravity   	1
 Viscosity          	1
 Trials             	40
 Accuracy           	0.001
 CHECKFREQ          	2
 MAXCHECK           	10
 DAMPLIMIT          	0
 Unbalanced         	Continue 10
 Pattern            	1
 Demand Multiplier  	1.0
 Emitter Exponent   	0.5
 Quality            	Trace 
 Diffusivity        	1
 Tolerance          	0.01

[COORDINATES]
;Node            	X-Coord         	Y-Coord
 conexion1       	3180.05         	8652.85         
 1               	5769.32         	5654.60         
 4               	5228.11         	6655.99         
 5               	5953.72         	6641.18         
 6               	3576.99         	8943.87         
 2               	2441.04         	6745.28         
 3               	7370.28         	8915.09         

[VERTICES]
;Link            	X-Coord         	Y-Coord

[LABELS]
;X-Coord           Y-Coord          Label & Anchor Node
 6075.89          7659.25          "asld" conexion1       

[BACKDROP]
 DIMENSIONS     	2146.23         	5745.28         	8632.08         	9066.04         
 UNITS          	Feet
 FILE           	
 OFFSET         	0.00            	0.00            

[END]
